  40
        -59.54215032
C    -3.53514833    1.53490242    0.25896929
C    -3.82926550    0.34103455   -0.37762600
C    -2.80912990   -0.42226708   -0.91528666
C    -1.48578178   -0.01322925   -0.80767881
C    -1.18937510    1.19023365   -0.16645660
C    -2.22247480    1.95943953    0.35427105
C     0.20327458    1.67685150   -0.07928648
C     0.57567608    2.82664277   -0.76441038
C     1.86715213    3.31323151   -0.67609543
C     2.79673445    2.66179148    0.11672446
C     2.42996119    1.52729722    0.81737351
C     1.14010035    1.02048435    0.72007438
C     0.76147778   -0.17634415    1.49984328
C     0.74463528   -0.11777896    2.88779835
C     0.41753244   -1.23324169    3.63690251
C     0.12118062   -2.42749022    3.00205381
C     0.15400952   -2.50023570    1.62144958
C     0.46343323   -1.38014473    0.86003384
C     0.52124688   -1.48743384   -0.61272156
C     1.48934096   -2.28646865   -1.20808370
C     1.54487799   -2.42082355   -2.58332487
C     0.61685573   -1.76920419   -3.37783348
C    -0.36199301   -0.98674607   -2.79298880
C    -0.41417473   -0.83082732   -1.41346741
H    -4.32864116    2.13762535    0.67589018
H    -4.85338481    0.00768232   -0.46000510
H    -3.03168510   -1.35144292   -1.42071736
H    -1.98598558    2.89433632    0.84253223
H    -0.15767625    3.33444391   -1.37490165
H     2.14679796    4.20304925   -1.22085601
H     3.80533453    3.04068424    0.19360359
H     3.14790221    1.01812412    1.44480496
H     0.98488062    0.81589907    3.37656638
H     0.39918843   -1.17251752    4.71518832
H    -0.12977321   -3.30315385    3.58254551
H    -0.06806919   -3.43124377    1.11919074
H     2.20541881   -2.79857129   -0.58091318
H     2.30801839   -3.03778827   -3.03465756
H     0.65232881   -1.87520883   -4.45218877
H    -1.09480051   -0.48159170   -3.40631620
