  24
        -43.36566800
 O         -3.1347625091       -1.3858833466       -0.5243128010
 C         -1.8246055953       -1.7947731283       -0.2681858912
 C         -0.9659366197       -0.6584341364        0.3045489942
 O          0.2134381775       -1.2290216924        0.8320256866
 C          1.0682968908       -0.3016820282        1.4485774457
 O          2.2114861083       -0.9853941881        1.8374634710
 C          1.5064344032        0.8237004575        0.4937035959
 O          2.3069847032        0.3152406265       -0.5436550788
 C          0.2763577664        1.4745602625       -0.1447611440
 O          0.6355711560        2.4216365964       -1.1152258406
 C         -0.6027909241        0.3773995239       -0.7692000665
 O         -1.7705268621        0.9409538848       -1.3166495556
 H         -3.0925476191       -0.5671638433       -1.0393898846
 H         -1.3385693120       -2.1820951926       -1.1754185971
 H         -1.8788401545       -2.6007858952        0.4674135325
 H         -1.5321769928       -0.1551846254        1.1059805661
 H          0.5525591428        0.1518932912        2.3227361867
 H          1.9435290182       -1.8584410721        2.1491532813
 H          2.0727672916        1.5679828818        1.0756756624
 H          2.8667378867       -0.3709997121       -0.1561164611
 H         -0.3053113551        2.0120314945        0.6134737862
 H          1.3752872633        2.0481966874       -1.6144429585
 H         -0.0185063015       -0.1261108216       -1.5574100712
 H         -1.5198980489        1.7940973223       -1.6982916515
